Circuit: * D:\Solar Farm\Buck Sim.asc

Direct Newton iteration for .op point succeeded.
